
OS:Version,
  {73eb663d-862d-4443-a68f-5e7523c27655}, ! Handle
  0.9.3;                                  ! Version Identifier

OS:Site:WaterMainsTemperature,
  {ac1eae5b-618c-4146-a750-52f90830c46d}, ! Handle
  Correlation,                            ! Calculation Method
  ,                                       ! Temperature Schedule Name
  11.025,                                 ! Annual Average Outdoor Air Temperature {C}
  27.1;                                   ! Maximum Difference In Monthly Average Outdoor Air Temperatures {deltaC}

