
OS:Version,
  {eaa1934c-f27c-4725-8c24-178fdf76e755}, ! Handle
  0.9.3;                                  ! Version Identifier

OS:Site:WaterMainsTemperature,
  {373c9616-5993-412b-8fb8-01df746b76b1}, ! Handle
  Correlation,                            ! Calculation Method
  ,                                       ! Temperature Schedule Name
  -4.29166666666667,                      ! Annual Average Outdoor Air Temperature {C}
  38.4;                                   ! Maximum Difference In Monthly Average Outdoor Air Temperatures {deltaC}

