
OS:Version,
  {fc3862b3-7ba1-4372-a810-12d0ede66144}, ! Handle
  0.9.3;                                  ! Version Identifier

OS:Site:WaterMainsTemperature,
  {10523a90-ac27-4c51-bf0f-b53196caa5c0}, ! Handle
  Correlation,                            ! Calculation Method
  ,                                       ! Temperature Schedule Name
  9.60833333333333,                       ! Annual Average Outdoor Air Temperature {C}
  32.5;                                   ! Maximum Difference In Monthly Average Outdoor Air Temperatures {deltaC}

