
OS:Version,
  {13d311e2-6b44-4715-9aea-dab508bab9e3}, ! Handle
  0.9.3;                                  ! Version Identifier

OS:Site:WaterMainsTemperature,
  {b41342a6-f49b-42b6-a320-6a258f6a67a6}, ! Handle
  Correlation,                            ! Calculation Method
  ,                                       ! Temperature Schedule Name
  8.94166666666667,                       ! Annual Average Outdoor Air Temperature {C}
  27.5;                                   ! Maximum Difference In Monthly Average Outdoor Air Temperatures {deltaC}

