
OS:Version,
  {ff56aa9d-df6f-4d15-ad1b-c6ab41879f1f}, ! Handle
  0.9.3;                                  ! Version Identifier

OS:Site:WaterMainsTemperature,
  {e03ef466-9f9b-45cf-978e-850191c2e148}, ! Handle
  Correlation,                            ! Calculation Method
  ,                                       ! Temperature Schedule Name
  9.19166666666667,                       ! Annual Average Outdoor Air Temperature {C}
  23.5;                                   ! Maximum Difference In Monthly Average Outdoor Air Temperatures {deltaC}

