
OS:Version,
  {996b324b-2376-49bc-8dd2-c09159cd7c28}, ! Handle
  0.9.3;                                  ! Version Identifier

OS:Site:WaterMainsTemperature,
  {e744f194-8d8a-4eb6-8c37-91bba041de51}, ! Handle
  Correlation,                            ! Calculation Method
  ,                                       ! Temperature Schedule Name
  4.61666666666667,                       ! Annual Average Outdoor Air Temperature {C}
  15.6;                                   ! Maximum Difference In Monthly Average Outdoor Air Temperatures {deltaC}

