
OS:Version,
  {11473136-0513-4b22-bf9a-a0c3e3ddba15}, ! Handle
  0.9.3;                                  ! Version Identifier

OS:Site:WaterMainsTemperature,
  {f9099d45-3aee-4bb5-9224-1de0c08e68b7}, ! Handle
  Correlation,                            ! Calculation Method
  ,                                       ! Temperature Schedule Name
  13.3666666666667,                       ! Annual Average Outdoor Air Temperature {C}
  26.1;                                   ! Maximum Difference In Monthly Average Outdoor Air Temperatures {deltaC}

