
OS:Version,
  {5d4fddae-20e3-4d7d-a906-9939c726bf4c}, ! Handle
  0.9.3;                                  ! Version Identifier

OS:Site:WaterMainsTemperature,
  {122b5236-6d65-4124-9c8c-4017deb5118d}, ! Handle
  Correlation,                            ! Calculation Method
  ,                                       ! Temperature Schedule Name
  7.20833333333333,                       ! Annual Average Outdoor Air Temperature {C}
  33.8;                                   ! Maximum Difference In Monthly Average Outdoor Air Temperatures {deltaC}

