
OS:Version,
  {799db786-0de9-4af9-8bf0-03e65afd6e82}, ! Handle
  0.9.3;                                  ! Version Identifier

OS:Site:WaterMainsTemperature,
  {0adaa79e-08fe-4238-a949-21c5e42a9b22}, ! Handle
  Schedule;                               ! Calculation Method

