
OS:Version,
  {2e038810-b40c-4528-b1c8-6c26616a14b4}, ! Handle
  0.9.3;                                  ! Version Identifier

OS:Site:WaterMainsTemperature,
  {1ab490a6-18db-4e76-a8dc-9695224fd9df}, ! Handle
  Correlation,                            ! Calculation Method
  ,                                       ! Temperature Schedule Name
  5.14166666666667,                       ! Annual Average Outdoor Air Temperature {C}
  32.5;                                   ! Maximum Difference In Monthly Average Outdoor Air Temperatures {deltaC}

