
OS:Version,
  {02111d95-35fa-42e0-8c09-889876870be3}, ! Handle
  0.9.3;                                  ! Version Identifier

OS:Site:WaterMainsTemperature,
  {4e3eb69d-75c2-4fd5-aef7-91ecf1634e0d}, ! Handle
  Correlation,                            ! Calculation Method
  ,                                       ! Temperature Schedule Name
  10.35,                                  ! Annual Average Outdoor Air Temperature {C}
  10.6;                                   ! Maximum Difference In Monthly Average Outdoor Air Temperatures {deltaC}

