
OS:Version,
  {1db7a227-fef9-4df2-b77d-b10da02529ed}, ! Handle
  0.9.3;                                  ! Version Identifier

OS:Site:WaterMainsTemperature,
  {c24adca3-4ff5-4af4-80ad-c3a221c0d3d1}, ! Handle
  Correlation,                            ! Calculation Method
  ,                                       ! Temperature Schedule Name
  17.975,                                 ! Annual Average Outdoor Air Temperature {C}
  23.5;                                   ! Maximum Difference In Monthly Average Outdoor Air Temperatures {deltaC}

