
OS:Version,
  {134b5445-4ad9-4cf7-bb29-ce4500e113a0}, ! Handle
  0.9.3;                                  ! Version Identifier

OS:Site:WaterMainsTemperature,
  {147ecc14-d993-4b85-9cef-bb55866c6463}, ! Handle
  Correlation,                            ! Calculation Method
  ,                                       ! Temperature Schedule Name
  6.5,                                    ! Annual Average Outdoor Air Temperature {C}
  30.1;                                   ! Maximum Difference In Monthly Average Outdoor Air Temperatures {deltaC}

