
OS:Version,
  {f3e4e269-0a94-462f-baa2-d6b7be41bb02}, ! Handle
  0.9.3;                                  ! Version Identifier

OS:Site:WaterMainsTemperature,
  {5e298112-93d7-4b0f-8d4e-0d248fae07a8}, ! Handle
  Correlation,                            ! Calculation Method
  ,                                       ! Temperature Schedule Name
  7.90833333333333,                       ! Annual Average Outdoor Air Temperature {C}
  29;                                     ! Maximum Difference In Monthly Average Outdoor Air Temperatures {deltaC}

