
OS:Version,
  {5107aee3-ddb1-46e9-88dc-bb6ee2606f62}, ! Handle
  0.9.3;                                  ! Version Identifier

OS:Site:WaterMainsTemperature,
  {a9574979-71f2-4596-9ee7-894ece0a3a77}, ! Handle
  Correlation,                            ! Calculation Method
  ,                                       ! Temperature Schedule Name
  8.58333333333333,                       ! Annual Average Outdoor Air Temperature {C}
  32.5;                                   ! Maximum Difference In Monthly Average Outdoor Air Temperatures {deltaC}

