
OS:Version,
  {aeb7f40d-c230-48c7-9fe4-8944ef027ef1}, ! Handle
  0.9.3;                                  ! Version Identifier

OS:Site:WaterMainsTemperature,
  {8fb670a0-137a-4921-aa5a-ee1566520518}, ! Handle
  Correlation,                            ! Calculation Method
  ,                                       ! Temperature Schedule Name
  7.19166666666667,                       ! Annual Average Outdoor Air Temperature {C}
  33.2;                                   ! Maximum Difference In Monthly Average Outdoor Air Temperatures {deltaC}

