
OS:Version,
  {8af70a0d-265c-4486-953c-f9bb5817d5c5}, ! Handle
  0.9.3;                                  ! Version Identifier

OS:Site:WaterMainsTemperature,
  {796edd6d-3857-4b16-a007-035a23fccedc}, ! Handle
  Correlation,                            ! Calculation Method
  ,                                       ! Temperature Schedule Name
  13.35,                                  ! Annual Average Outdoor Air Temperature {C}
  6.3;                                    ! Maximum Difference In Monthly Average Outdoor Air Temperatures {deltaC}

