
OS:Version,
  {345d7cd7-2be1-493f-85f0-ec4d49010d78}, ! Handle
  0.9.3;                                  ! Version Identifier

OS:Site:WaterMainsTemperature,
  {17567f5c-cda9-4f81-86b3-a90057a34cbd}, ! Handle
  Correlation,                            ! Calculation Method
  ,                                       ! Temperature Schedule Name
  13.0666666666667,                       ! Annual Average Outdoor Air Temperature {C}
  30.7;                                   ! Maximum Difference In Monthly Average Outdoor Air Temperatures {deltaC}

