
OS:Version,
  {4dd51a99-22f0-4c54-a125-0a132e8f69e7}, ! Handle
  0.9.3;                                  ! Version Identifier

OS:Site:WaterMainsTemperature,
  {77bf7488-db6f-4c20-9e8a-3cc98828df2b}, ! Handle
  Correlation,                            ! Calculation Method
  ,                                       ! Temperature Schedule Name
  19.7083333333333,                       ! Annual Average Outdoor Air Temperature {C}
  23.1;                                   ! Maximum Difference In Monthly Average Outdoor Air Temperatures {deltaC}

