
OS:Version,
  {83f63cae-1728-40b0-a1fd-006ded3043e3}, ! Handle
  0.9.3;                                  ! Version Identifier

OS:Site:WaterMainsTemperature,
  {4d7bfa70-b472-4543-bf77-45fff36fad59}, ! Handle
  Correlation,                            ! Calculation Method
  ,                                       ! Temperature Schedule Name
  -6.53333333333333,                      ! Annual Average Outdoor Air Temperature {C}
  31.9;                                   ! Maximum Difference In Monthly Average Outdoor Air Temperatures {deltaC}

