
OS:Version,
  {db6b4e82-4c54-4988-af66-7d87deda9b9b}, ! Handle
  0.9.3;                                  ! Version Identifier

OS:Site:WaterMainsTemperature,
  {0a7ccd27-d1b8-4b64-90a2-31c7eadbdfaf}, ! Handle
  Correlation,                            ! Calculation Method
  ,                                       ! Temperature Schedule Name
  5.50833333333333,                       ! Annual Average Outdoor Air Temperature {C}
  25.6;                                   ! Maximum Difference In Monthly Average Outdoor Air Temperatures {deltaC}

