
OS:Version,
  {f7ce7030-c13e-48b9-9f2a-3b172f3cadd3}, ! Handle
  0.9.3;                                  ! Version Identifier

OS:Site:WaterMainsTemperature,
  {f507633f-4f07-42b8-900d-ef678629bc0a}, ! Handle
  Correlation,                            ! Calculation Method
  ,                                       ! Temperature Schedule Name
  -0.949999999999999,                     ! Annual Average Outdoor Air Temperature {C}
  38.1;                                   ! Maximum Difference In Monthly Average Outdoor Air Temperatures {deltaC}

