
OS:Version,
  {96060b55-f37b-46ec-b6a3-5657927bb5bb}, ! Handle
  0.9.3;                                  ! Version Identifier

OS:Site:WaterMainsTemperature,
  {283bcfdc-4b22-498a-90b7-5d7fd47f7153}, ! Handle
  Correlation,                            ! Calculation Method
  ,                                       ! Temperature Schedule Name
  24.4916666666667,                       ! Annual Average Outdoor Air Temperature {C}
  8.7;                                    ! Maximum Difference In Monthly Average Outdoor Air Temperatures {deltaC}

