
OS:Version,
  {0cdb2311-057e-4d53-9165-1784e87cc83a}, ! Handle
  0.9.3;                                  ! Version Identifier

OS:Site:WaterMainsTemperature,
  {fedeeab1-28e8-4b30-94e4-e22f261c9de5}, ! Handle
  Correlation,                            ! Calculation Method
  ,                                       ! Temperature Schedule Name
  -3.26666666666667,                      ! Annual Average Outdoor Air Temperature {C}
  35.7;                                   ! Maximum Difference In Monthly Average Outdoor Air Temperatures {deltaC}

