
OS:Version,
  {1f13c71d-354b-4f36-ba59-4830505f4a52}, ! Handle
  0.9.3;                                  ! Version Identifier

OS:Site:WaterMainsTemperature,
  {223a0a7e-888d-4295-8451-0ddee9b1d670}, ! Handle
  Schedule;                               ! Calculation Method

OS:ComponentData,
  {9a24e7a8-5974-4728-af93-e33584168e09}, ! Handle
  Component Data 1,                       ! Name
  {996e2e18-8f71-46b2-af3a-83f3727416c5}, ! UUID
  {31df6b9d-ba04-40c1-a1cc-63f4b3ede4de}, ! Version UUID
  1364004580,                             ! Creation Timestamp
  1364004580,                             ! Version Timestamp
  {223a0a7e-888d-4295-8451-0ddee9b1d670}; ! Name of Object 1

