
OS:Version,
  {f09ff254-4a13-4761-a8fd-90d2b736fadf}, ! Handle
  0.9.3;                                  ! Version Identifier

OS:Site:WaterMainsTemperature,
  {d21c355b-9463-419d-919f-397ba42878d5}, ! Handle
  Correlation,                            ! Calculation Method
  ,                                       ! Temperature Schedule Name
  12.75,                                  ! Annual Average Outdoor Air Temperature {C}
  27.6;                                   ! Maximum Difference In Monthly Average Outdoor Air Temperatures {deltaC}

