
OS:Version,
  {a8ac404e-6023-4742-a0bf-02c342d31c6b}, ! Handle
  0.9.3;                                  ! Version Identifier

OS:Site:WaterMainsTemperature,
  {5902bf86-3eb7-40ec-af45-2ff8036332ca}, ! Handle
  Correlation,                            ! Calculation Method
  ,                                       ! Temperature Schedule Name
  4.875,                                  ! Annual Average Outdoor Air Temperature {C}
  33.7;                                   ! Maximum Difference In Monthly Average Outdoor Air Temperatures {deltaC}

