
OS:Version,
  {8a47f45c-d40c-4548-9621-bc67c38c0aed}, ! Handle
  0.9.3;                                  ! Version Identifier

OS:Site:WaterMainsTemperature,
  {f3813221-37b0-4909-9a92-c0adfbf04ff4}, ! Handle
  Correlation,                            ! Calculation Method
  ,                                       ! Temperature Schedule Name
  16.7666666666667,                       ! Annual Average Outdoor Air Temperature {C}
  9.7;                                    ! Maximum Difference In Monthly Average Outdoor Air Temperatures {deltaC}

