
OS:Version,
  {81282d07-8730-483c-8c4b-829fca058ebd}, ! Handle
  0.9.3;                                  ! Version Identifier

OS:Site:WaterMainsTemperature,
  {f4d83851-0b2a-4829-8b78-b78779ee614b}, ! Handle
  Correlation,                            ! Calculation Method
  ,                                       ! Temperature Schedule Name
  20.5416666666667,                       ! Annual Average Outdoor Air Temperature {C}
  15.9;                                   ! Maximum Difference In Monthly Average Outdoor Air Temperatures {deltaC}

