
OS:Version,
  {50a9bb24-2018-445d-9716-60799edaa6f2}, ! Handle
  0.9.3;                                  ! Version Identifier

OS:Site:WaterMainsTemperature,
  {4aed7ce5-3ce2-4682-b5c4-bea6de317335}, ! Handle
  Correlation,                            ! Calculation Method
  ,                                       ! Temperature Schedule Name
  10.725,                                 ! Annual Average Outdoor Air Temperature {C}
  5.7;                                    ! Maximum Difference In Monthly Average Outdoor Air Temperatures {deltaC}

