
OS:Version,
  {4bdbb43c-54d6-41a4-ac3c-6876e967f5f0}, ! Handle
  0.9.3;                                  ! Version Identifier

OS:Site:WaterMainsTemperature,
  {4684ad10-c47e-44cd-b91b-3b87c0602c63}, ! Handle
  Correlation,                            ! Calculation Method
  ,                                       ! Temperature Schedule Name
  12.0416666666667,                       ! Annual Average Outdoor Air Temperature {C}
  26.4;                                   ! Maximum Difference In Monthly Average Outdoor Air Temperatures {deltaC}

