
OS:Version,
  {619d7d50-0f02-4cdd-bc41-e622c2924410}, ! Handle
  0.9.3;                                  ! Version Identifier

OS:Site:WaterMainsTemperature,
  {a768888e-7cad-42da-8464-05b1ade5120b}, ! Handle
  Correlation,                            ! Calculation Method
  ,                                       ! Temperature Schedule Name
  23.7666666666667,                       ! Annual Average Outdoor Air Temperature {C}
  4.5;                                    ! Maximum Difference In Monthly Average Outdoor Air Temperatures {deltaC}

