
OS:Version,
  {cc9abbce-b4e3-4f92-aadb-253a9292a1ac}, ! Handle
  0.9.3;                                  ! Version Identifier

OS:Site:WaterMainsTemperature,
  {7a9986a8-f5b3-4a8a-8cd8-169e0c12637e}, ! Handle
  Correlation,                            ! Calculation Method
  ,                                       ! Temperature Schedule Name
  16.6166666666667,                       ! Annual Average Outdoor Air Temperature {C}
  21.6;                                   ! Maximum Difference In Monthly Average Outdoor Air Temperatures {deltaC}

