
OS:Version,
  {01764d21-3dd0-4994-9f68-e1d687ec56e2}, ! Handle
  0.9.3;                                  ! Version Identifier

OS:Site:WaterMainsTemperature,
  {5c19d1fc-ba54-4cf9-aa6c-e7baf1102753}, ! Handle
  Correlation,                            ! Calculation Method
  ,                                       ! Temperature Schedule Name
  14.05,                                  ! Annual Average Outdoor Air Temperature {C}
  25.9;                                   ! Maximum Difference In Monthly Average Outdoor Air Temperatures {deltaC}

