
OS:Version,
  {8303ba3c-72a6-4db8-bf1f-3ddee5ca5cab}, ! Handle
  0.9.3;                                  ! Version Identifier

OS:Site:WaterMainsTemperature,
  {332dc2ad-883e-4d8e-b38e-4df4d3801600}, ! Handle
  Correlation,                            ! Calculation Method
  ,                                       ! Temperature Schedule Name
  15.3833333333333,                       ! Annual Average Outdoor Air Temperature {C}
  24;                                     ! Maximum Difference In Monthly Average Outdoor Air Temperatures {deltaC}

