
OS:Version,
  {68ce2d48-4367-4800-99d3-181dacc7a8db}, ! Handle
  0.9.3;                                  ! Version Identifier

OS:Site:WaterMainsTemperature,
  {9cb78bde-7704-4d36-98fc-c1c7984e4e5c}, ! Handle
  Correlation,                            ! Calculation Method
  ,                                       ! Temperature Schedule Name
  19.9416666666667,                       ! Annual Average Outdoor Air Temperature {C}
  15.1;                                   ! Maximum Difference In Monthly Average Outdoor Air Temperatures {deltaC}

