
OS:Version,
  {7bf93ef0-7c98-4c9e-9e5d-e07fd5c3bf54}, ! Handle
  0.9.3;                                  ! Version Identifier

OS:Site:WaterMainsTemperature,
  {e0f2334e-2e96-4fca-a66f-6cb0ab7b3397}, ! Handle
  Correlation,                            ! Calculation Method
  ,                                       ! Temperature Schedule Name
  13.7,                                   ! Annual Average Outdoor Air Temperature {C}
  8.8;                                    ! Maximum Difference In Monthly Average Outdoor Air Temperatures {deltaC}

