
OS:Version,
  {602bca0e-dd40-4448-bf09-a8c0c4597791}, ! Handle
  0.9.3;                                  ! Version Identifier

OS:Site:WaterMainsTemperature,
  {99b5f17a-67e9-48ab-80a8-dd0d84c9887f}, ! Handle
  Correlation,                            ! Calculation Method
  ,                                       ! Temperature Schedule Name
  15.0166666666667,                       ! Annual Average Outdoor Air Temperature {C}
  23;                                     ! Maximum Difference In Monthly Average Outdoor Air Temperatures {deltaC}

