
OS:Version,
  {59bb09ba-846f-491c-bd08-7b10b181d4ab}, ! Handle
  0.9.3;                                  ! Version Identifier

OS:Site:WaterMainsTemperature,
  {7916aff0-036c-453c-a8b1-e8ea4ed1ba37}, ! Handle
  Correlation,                            ! Calculation Method
  ,                                       ! Temperature Schedule Name
  7.89166666666667,                       ! Annual Average Outdoor Air Temperature {C}
  30.5;                                   ! Maximum Difference In Monthly Average Outdoor Air Temperatures {deltaC}

