
OS:Version,
  {f16a9c5d-af48-4960-8ce2-cc3b2826d3fa}, ! Handle
  0.9.3;                                  ! Version Identifier

OS:Site:WaterMainsTemperature,
  {bb22728e-a265-4bf3-b337-9323bee9b7c1}, ! Handle
  Correlation,                            ! Calculation Method
  ,                                       ! Temperature Schedule Name
  5.66666666666667,                       ! Annual Average Outdoor Air Temperature {C}
  32.5;                                   ! Maximum Difference In Monthly Average Outdoor Air Temperatures {deltaC}

