
OS:Version,
  {f401f95c-0f9b-4871-a673-83a60e7805b7}, ! Handle
  0.9.3;                                  ! Version Identifier

OS:Site:WaterMainsTemperature,
  {13895e0c-f3f4-40e5-afeb-7bdddf126986}, ! Handle
  Correlation,                            ! Calculation Method
  ,                                       ! Temperature Schedule Name
  16.4666666666667,                       ! Annual Average Outdoor Air Temperature {C}
  8.9;                                    ! Maximum Difference In Monthly Average Outdoor Air Temperatures {deltaC}

