
OS:Version,
  {a0e23598-708d-4206-bc92-777b02db0c59}, ! Handle
  0.9.3;                                  ! Version Identifier

OS:Site:WaterMainsTemperature,
  {5720928e-c194-49fd-ac3c-343a0981a139}, ! Handle
  Correlation,                            ! Calculation Method
  ,                                       ! Temperature Schedule Name
  4.925,                                  ! Annual Average Outdoor Air Temperature {C}
  27.5;                                   ! Maximum Difference In Monthly Average Outdoor Air Temperatures {deltaC}

