
OS:Version,
  {806a277b-9183-49d9-94a7-b7e4dfb30a3d}, ! Handle
  0.9.3;                                  ! Version Identifier

OS:Site:WaterMainsTemperature,
  {0929180e-4459-447a-8ea8-4b6a4909a715}, ! Handle
  Correlation,                            ! Calculation Method
  ,                                       ! Temperature Schedule Name
  13.2083333333333,                       ! Annual Average Outdoor Air Temperature {C}
  32.4;                                   ! Maximum Difference In Monthly Average Outdoor Air Temperatures {deltaC}

