
OS:Version,
  {47af1d1c-c095-4376-811b-0baf3256df56}, ! Handle
  0.9.3;                                  ! Version Identifier

OS:Site:WaterMainsTemperature,
  {ed0cc188-9ba8-4076-93fc-2a84a243c971}, ! Handle
  Correlation,                            ! Calculation Method
  ,                                       ! Temperature Schedule Name
  18.1166666666667,                       ! Annual Average Outdoor Air Temperature {C}
  24.2;                                   ! Maximum Difference In Monthly Average Outdoor Air Temperatures {deltaC}

