
OS:Version,
  {686ff89e-28be-4dab-86f2-9b3a88efca1d}, ! Handle
  0.9.3;                                  ! Version Identifier

OS:Site:WaterMainsTemperature,
  {b7679213-a18b-4a4d-b86c-58b50b9cf98c}, ! Handle
  Correlation,                            ! Calculation Method
  ,                                       ! Temperature Schedule Name
  16.0666666666667,                       ! Annual Average Outdoor Air Temperature {C}
  20.7;                                   ! Maximum Difference In Monthly Average Outdoor Air Temperatures {deltaC}

