
OS:Version,
  {623658d1-edb9-47b4-a5f4-d47a3d81bbeb}, ! Handle
  0.9.3;                                  ! Version Identifier

OS:Site:WaterMainsTemperature,
  {c4aa5bd9-754c-47a6-ad0c-800b6976f352}, ! Handle
  Correlation,                            ! Calculation Method
  ,                                       ! Temperature Schedule Name
  16.6666666666667,                       ! Annual Average Outdoor Air Temperature {C}
  18.7;                                   ! Maximum Difference In Monthly Average Outdoor Air Temperatures {deltaC}

