
OS:Version,
  {bc98b376-9f58-46a5-a974-5dafa5f18769}, ! Handle
  0.9.3;                                  ! Version Identifier

OS:Site:WaterMainsTemperature,
  {f772e30e-6734-4a85-8be0-2f0068df8414}, ! Handle
  Correlation,                            ! Calculation Method
  ,                                       ! Temperature Schedule Name
  19.9916666666667,                       ! Annual Average Outdoor Air Temperature {C}
  17.1;                                   ! Maximum Difference In Monthly Average Outdoor Air Temperatures {deltaC}

