
OS:Version,
  {44e1a9dc-4f46-4782-8e33-b9c4b290f700}, ! Handle
  0.9.3;                                  ! Version Identifier

OS:Site:WaterMainsTemperature,
  {92905688-bb54-4970-9062-7130b93be77c}, ! Handle
  Correlation,                            ! Calculation Method
  ,                                       ! Temperature Schedule Name
  11.4083333333333,                       ! Annual Average Outdoor Air Temperature {C}
  26.2;                                   ! Maximum Difference In Monthly Average Outdoor Air Temperatures {deltaC}

