
OS:Version,
  {55b0c191-9082-4129-8498-2d3040398f0f}, ! Handle
  0.9.3;                                  ! Version Identifier

OS:Site:WaterMainsTemperature,
  {9bf5febb-f66d-4740-9f97-f0542258d630}, ! Handle
  Correlation,                            ! Calculation Method
  ,                                       ! Temperature Schedule Name
  12.8416666666667,                       ! Annual Average Outdoor Air Temperature {C}
  26.1;                                   ! Maximum Difference In Monthly Average Outdoor Air Temperatures {deltaC}

