
OS:Version,
  {a26ca875-4ea0-4615-8393-9f45d0672d33}, ! Handle
  0.9.3;                                  ! Version Identifier

OS:Site:WaterMainsTemperature,
  {d970533c-56eb-4839-8a5b-690ef0d9c602}, ! Handle
  Correlation,                            ! Calculation Method
  ,                                       ! Temperature Schedule Name
  19.1583333333333,                       ! Annual Average Outdoor Air Temperature {C}
  20.9;                                   ! Maximum Difference In Monthly Average Outdoor Air Temperatures {deltaC}

