
OS:Version,
  {26517ded-8a05-4a60-a3d5-fd37332c4b5f}, ! Handle
  0.9.3;                                  ! Version Identifier

OS:Site:WaterMainsTemperature,
  {289ba3b7-89f1-4c6c-bcde-58030cc98386}, ! Handle
  Correlation,                            ! Calculation Method
  ,                                       ! Temperature Schedule Name
  24.9583333333333,                       ! Annual Average Outdoor Air Temperature {C}
  4.5;                                    ! Maximum Difference In Monthly Average Outdoor Air Temperatures {deltaC}

