
OS:Version,
  {99bed27a-28c2-4ea9-a3a6-9ec99ac59d25}, ! Handle
  0.9.3;                                  ! Version Identifier

OS:Site:WaterMainsTemperature,
  {d41849f4-2108-4d75-a4c5-b8391850ed37}, ! Handle
  Correlation,                            ! Calculation Method
  ,                                       ! Temperature Schedule Name
  20.3666666666667,                       ! Annual Average Outdoor Air Temperature {C}
  18.5;                                   ! Maximum Difference In Monthly Average Outdoor Air Temperatures {deltaC}

