
OS:Version,
  {b4df7449-a459-4f39-9aac-05ee4184e7b7}, ! Handle
  0.9.3;                                  ! Version Identifier

OS:Site:WaterMainsTemperature,
  {128860d0-ad5c-40f3-99bf-fef7b9ed638c}, ! Handle
  Correlation,                            ! Calculation Method
  ,                                       ! Temperature Schedule Name
  13.4416666666667,                       ! Annual Average Outdoor Air Temperature {C}
  22.1;                                   ! Maximum Difference In Monthly Average Outdoor Air Temperatures {deltaC}

