
OS:Version,
  {f73eb0fd-156c-4d17-813f-9f5c47aa425f}, ! Handle
  0.9.3;                                  ! Version Identifier

OS:Site:WaterMainsTemperature,
  {0c585f9c-8924-4bf6-9b68-d3a352534810}, ! Handle
  Correlation,                            ! Calculation Method
  ,                                       ! Temperature Schedule Name
  18.4666666666667,                       ! Annual Average Outdoor Air Temperature {C}
  18.6;                                   ! Maximum Difference In Monthly Average Outdoor Air Temperatures {deltaC}

