
OS:Version,
  {d09a29de-0ee4-46d1-a1a4-942513afdf7e}, ! Handle
  0.9.3;                                  ! Version Identifier

OS:Site:WaterMainsTemperature,
  {eadf17ed-f7d6-48b8-b454-bf48a2a93939}, ! Handle
  Correlation,                            ! Calculation Method
  ,                                       ! Temperature Schedule Name
  24.2166666666667,                       ! Annual Average Outdoor Air Temperature {C}
  23.2;                                   ! Maximum Difference In Monthly Average Outdoor Air Temperatures {deltaC}

