
OS:Version,
  {64224739-e1f0-4c6e-a3bc-246eb43dff98}, ! Handle
  0.9.3;                                  ! Version Identifier

OS:Site:WaterMainsTemperature,
  {bb2ea288-afe0-400b-a23d-24eb068b5aa8}, ! Handle
  Schedule;                               ! Calculation Method

