
OS:Version,
  {d4337d47-84a1-4d33-8635-04122ea36666}, ! Handle
  0.9.3;                                  ! Version Identifier

OS:Site:WaterMainsTemperature,
  {2199d307-2bae-40af-84d8-27b274a66181}, ! Handle
  Correlation,                            ! Calculation Method
  ,                                       ! Temperature Schedule Name
  4.76666666666667,                       ! Annual Average Outdoor Air Temperature {C}
  13.1;                                   ! Maximum Difference In Monthly Average Outdoor Air Temperatures {deltaC}

