
OS:Version,
  {d6f9570e-4a5d-4c2b-8ced-b1e221e74ad3}, ! Handle
  0.9.3;                                  ! Version Identifier

OS:Site:WaterMainsTemperature,
  {f33e6d0c-3a91-4a6e-b698-b2e3affff0c9}, ! Handle
  Correlation,                            ! Calculation Method
  ,                                       ! Temperature Schedule Name
  11.6166666666667,                       ! Annual Average Outdoor Air Temperature {C}
  25.5;                                   ! Maximum Difference In Monthly Average Outdoor Air Temperatures {deltaC}

