
OS:Version,
  {3eac6261-e086-403d-a528-2448df259bc6}, ! Handle
  0.9.3;                                  ! Version Identifier

OS:Site:WaterMainsTemperature,
  {f51c416d-7ba2-483d-8181-145ad1b0047c}, ! Handle
  Correlation,                            ! Calculation Method
  ,                                       ! Temperature Schedule Name
  18.4666666666667,                       ! Annual Average Outdoor Air Temperature {C}
  27.6;                                   ! Maximum Difference In Monthly Average Outdoor Air Temperatures {deltaC}

