
OS:Version,
  {65319350-8875-4978-bdeb-8f1727eebdb4}, ! Handle
  0.9.3;                                  ! Version Identifier

OS:Site:WaterMainsTemperature,
  {0086aa6e-1e4f-4b7f-9f13-1a45a9bd4aa4}, ! Handle
  Correlation,                            ! Calculation Method
  ,                                       ! Temperature Schedule Name
  16.0166666666667,                       ! Annual Average Outdoor Air Temperature {C}
  21.9;                                   ! Maximum Difference In Monthly Average Outdoor Air Temperatures {deltaC}

