
OS:Version,
  {5d8c1de9-dcc8-4c20-972b-cec52872b126}, ! Handle
  0.9.3;                                  ! Version Identifier

OS:Site:WaterMainsTemperature,
  {8b82a4b5-bfa2-4a5f-b05c-f7e83663a311}, ! Handle
  Correlation,                            ! Calculation Method
  ,                                       ! Temperature Schedule Name
  8.15,                                   ! Annual Average Outdoor Air Temperature {C}
  26.4;                                   ! Maximum Difference In Monthly Average Outdoor Air Temperatures {deltaC}

