
OS:Version,
  {280834c5-2c14-4bd2-8608-0d6f5b2c51d8}, ! Handle
  0.9.3;                                  ! Version Identifier

OS:Site:WaterMainsTemperature,
  {c302539b-dfcc-4e4b-8242-ab2728d9f022}, ! Handle
  Correlation,                            ! Calculation Method
  ,                                       ! Temperature Schedule Name
  14.2833333333333,                       ! Annual Average Outdoor Air Temperature {C}
  24.8;                                   ! Maximum Difference In Monthly Average Outdoor Air Temperatures {deltaC}

