
OS:Version,
  {0d7b4b94-164c-40ef-89be-59ad749442fc}, ! Handle
  0.9.3;                                  ! Version Identifier

OS:Site:WaterMainsTemperature,
  {559bb925-1961-4669-9b86-0099e5b3491f}, ! Handle
  Correlation,                            ! Calculation Method
  ,                                       ! Temperature Schedule Name
  10.4,                                   ! Annual Average Outdoor Air Temperature {C}
  27.5;                                   ! Maximum Difference In Monthly Average Outdoor Air Temperatures {deltaC}

