
OS:Version,
  {c20cd02f-d7a2-4699-8153-bdad5073a002}, ! Handle
  0.9.3;                                  ! Version Identifier

OS:Site:WaterMainsTemperature,
  {b2e7b09d-8b7c-4e25-a8bd-77a41d8e37a1}, ! Handle
  Correlation,                            ! Calculation Method
  ,                                       ! Temperature Schedule Name
  4.66666666666667,                       ! Annual Average Outdoor Air Temperature {C}
  11.4;                                   ! Maximum Difference In Monthly Average Outdoor Air Temperatures {deltaC}

