
OS:Version,
  {ceda7a29-220c-41f4-8839-92176eb80bef}, ! Handle
  0.9.3;                                  ! Version Identifier

OS:Site:WaterMainsTemperature,
  {dbf93d4b-6276-4c29-bbf2-ab63fae2f528}, ! Handle
  Correlation,                            ! Calculation Method
  ,                                       ! Temperature Schedule Name
  24.9166666666667,                       ! Annual Average Outdoor Air Temperature {C}
  4.6;                                    ! Maximum Difference In Monthly Average Outdoor Air Temperatures {deltaC}

