
OS:Version,
  {8a05112b-c3b1-410f-a45a-3427c0246e5c}, ! Handle
  0.9.3;                                  ! Version Identifier

OS:Site:WaterMainsTemperature,
  {a3b228ef-56b2-44bc-b7c6-ec34d69281ad}, ! Handle
  Correlation,                            ! Calculation Method
  ,                                       ! Temperature Schedule Name
  15.8166666666667,                       ! Annual Average Outdoor Air Temperature {C}
  21.5;                                   ! Maximum Difference In Monthly Average Outdoor Air Temperatures {deltaC}

