
OS:Version,
  {5a1ee6f8-be8a-4c5b-b23c-c8256933138b}, ! Handle
  0.9.3;                                  ! Version Identifier

OS:Site:WaterMainsTemperature,
  {48ddb8cf-12eb-4b62-925e-f2d2e7b942e6}, ! Handle
  Correlation,                            ! Calculation Method
  ,                                       ! Temperature Schedule Name
  12.8583333333333,                       ! Annual Average Outdoor Air Temperature {C}
  30.1;                                   ! Maximum Difference In Monthly Average Outdoor Air Temperatures {deltaC}

