
OS:Version,
  {1d00a9d9-c6e7-43f1-9ea3-0f8976115478}, ! Handle
  0.9.3;                                  ! Version Identifier

OS:Site:WaterMainsTemperature,
  {7ff6559b-a67d-4a1c-9600-035cf3957598}, ! Handle
  Schedule;                               ! Calculation Method

OS:ComponentData,
  {4708315a-de59-49ed-8238-feb64d5625ed}, ! Handle
  Component Data 1,                       ! Name
  {e0562a08-287e-4472-8561-38113986bf08}, ! UUID
  {4a3d9637-8fbf-4af2-ad65-bdbe5ff84f31}, ! Version UUID
  1364007057,                             ! Creation Timestamp
  1364007057,                             ! Version Timestamp
  {7ff6559b-a67d-4a1c-9600-035cf3957598}; ! Name of Object 1

