
OS:Version,
  {72a0e1ef-5166-4f3b-8e95-f0968713e070}, ! Handle
  0.9.3;                                  ! Version Identifier

OS:Site:WaterMainsTemperature,
  {48b7d7b2-c813-4d13-aa92-f7c44c71705d}, ! Handle
  Correlation,                            ! Calculation Method
  ,                                       ! Temperature Schedule Name
  18.1666666666667,                       ! Annual Average Outdoor Air Temperature {C}
  19.1;                                   ! Maximum Difference In Monthly Average Outdoor Air Temperatures {deltaC}

