
OS:Version,
  {580c7fcb-473c-4370-b674-d15d86b47462}, ! Handle
  0.9.3;                                  ! Version Identifier

OS:Site:WaterMainsTemperature,
  {6f26517e-c9fd-40f4-9fe5-93b1f891f21b}, ! Handle
  Correlation,                            ! Calculation Method
  ,                                       ! Temperature Schedule Name
  11.1916666666667,                       ! Annual Average Outdoor Air Temperature {C}
  15.4;                                   ! Maximum Difference In Monthly Average Outdoor Air Temperatures {deltaC}

