
OS:Version,
  {bb05f15c-4f18-4aa3-9ce6-243433563c6e}, ! Handle
  0.9.3;                                  ! Version Identifier

OS:Site:WaterMainsTemperature,
  {4a201b39-6f86-4b20-a8d9-a9cff06b36b4}, ! Handle
  Correlation,                            ! Calculation Method
  ,                                       ! Temperature Schedule Name
  11.625,                                 ! Annual Average Outdoor Air Temperature {C}
  25.9;                                   ! Maximum Difference In Monthly Average Outdoor Air Temperatures {deltaC}

