
OS:Version,
  {909bc24e-4871-449b-94fc-b5907b0e4931}, ! Handle
  0.9.3;                                  ! Version Identifier

OS:Site:WaterMainsTemperature,
  {d6fe9c0a-5dca-45bb-8e0d-bd6feb3a2e96}, ! Handle
  Correlation,                            ! Calculation Method
  ,                                       ! Temperature Schedule Name
  8.95,                                   ! Annual Average Outdoor Air Temperature {C}
  22.6;                                   ! Maximum Difference In Monthly Average Outdoor Air Temperatures {deltaC}

