
OS:Version,
  {1ff51126-70ac-455e-a34a-0ba61ce37127}, ! Handle
  0.9.3;                                  ! Version Identifier

OS:Site:WaterMainsTemperature,
  {43faf2d2-9deb-4ce1-a21e-294bc4a572dc}, ! Handle
  Correlation,                            ! Calculation Method
  ,                                       ! Temperature Schedule Name
  9.975,                                  ! Annual Average Outdoor Air Temperature {C}
  27.2;                                   ! Maximum Difference In Monthly Average Outdoor Air Temperatures {deltaC}

