
OS:Version,
  {6df7bfa3-6be7-4c64-a41a-b5b002968287}, ! Handle
  0.9.3;                                  ! Version Identifier

OS:Site:WaterMainsTemperature,
  {8fcfb9f3-1522-4bb4-a0c0-85888ea7834c}, ! Handle
  Correlation,                            ! Calculation Method
  ,                                       ! Temperature Schedule Name
  5.71666666666667,                       ! Annual Average Outdoor Air Temperature {C}
  33.8;                                   ! Maximum Difference In Monthly Average Outdoor Air Temperatures {deltaC}

