
OS:Version,
  {8ca5fb97-ada9-4e66-ad3e-6951f790c4e1}, ! Handle
  0.9.3;                                  ! Version Identifier

OS:Site:WaterMainsTemperature,
  {04a0efeb-a5b2-4e17-aa4b-c95e1db7132d}, ! Handle
  Correlation,                            ! Calculation Method
  ,                                       ! Temperature Schedule Name
  16.4916666666667,                       ! Annual Average Outdoor Air Temperature {C}
  22.4;                                   ! Maximum Difference In Monthly Average Outdoor Air Temperatures {deltaC}

