
OS:Version,
  {b0a70349-ff10-451b-8da7-b340d169dd4d}, ! Handle
  0.9.3;                                  ! Version Identifier

OS:Site:WaterMainsTemperature,
  {1cbfd175-7384-46d6-b3f5-07996a457549}, ! Handle
  Correlation,                            ! Calculation Method
  ,                                       ! Temperature Schedule Name
  18.4666666666667,                       ! Annual Average Outdoor Air Temperature {C}
  22.6;                                   ! Maximum Difference In Monthly Average Outdoor Air Temperatures {deltaC}

