
OS:Version,
  {618d6584-cc06-41f9-b3d3-977a6f66e819}, ! Handle
  0.9.3;                                  ! Version Identifier

OS:Site:WaterMainsTemperature,
  {83cf074d-3f82-4050-8ea2-ecdfcfdbcc38}, ! Handle
  Correlation,                            ! Calculation Method
  ,                                       ! Temperature Schedule Name
  14.7916666666667,                       ! Annual Average Outdoor Air Temperature {C}
  13.6;                                   ! Maximum Difference In Monthly Average Outdoor Air Temperatures {deltaC}

