
OS:Version,
  {56949fef-7c98-42f0-bed3-b5c00261de83}, ! Handle
  0.9.3;                                  ! Version Identifier

OS:Site:WaterMainsTemperature,
  {49c0f1af-3e39-46f4-a43d-04150698e320}, ! Handle
  Correlation,                            ! Calculation Method
  ,                                       ! Temperature Schedule Name
  8.76666666666667,                       ! Annual Average Outdoor Air Temperature {C}
  28.2;                                   ! Maximum Difference In Monthly Average Outdoor Air Temperatures {deltaC}

