
OS:Version,
  {fc292f51-53ac-4868-9da9-120475fd5839}, ! Handle
  0.9.3;                                  ! Version Identifier

OS:Site:WaterMainsTemperature,
  {753ac95b-ad2f-4ae6-86b4-368e9141ecf2}, ! Handle
  Correlation,                            ! Calculation Method
  ,                                       ! Temperature Schedule Name
  9.75,                                   ! Annual Average Outdoor Air Temperature {C}
  26.8;                                   ! Maximum Difference In Monthly Average Outdoor Air Temperatures {deltaC}

