
OS:Version,
  {ae01c79f-5a0c-4e01-8850-2ecd7789b157}, ! Handle
  0.9.3;                                  ! Version Identifier

OS:Site:WaterMainsTemperature,
  {dc96c226-23f0-4b40-8379-71abbcd985d7}, ! Handle
  Correlation,                            ! Calculation Method
  ,                                       ! Temperature Schedule Name
  10.8833333333333,                       ! Annual Average Outdoor Air Temperature {C}
  30.6;                                   ! Maximum Difference In Monthly Average Outdoor Air Temperatures {deltaC}

