
OS:Version,
  {57e17461-a600-4430-bfc0-09b4ee6c6255}, ! Handle
  0.9.3;                                  ! Version Identifier

OS:Site:WaterMainsTemperature,
  {b341a16b-197a-42b4-8701-6780f652d0cb}, ! Handle
  Correlation,                            ! Calculation Method
  ,                                       ! Temperature Schedule Name
  16.8166666666667,                       ! Annual Average Outdoor Air Temperature {C}
  6.3;                                    ! Maximum Difference In Monthly Average Outdoor Air Temperatures {deltaC}

