
OS:Version,
  {568eee53-02bf-4bad-99ff-b2c521cdae09}, ! Handle
  0.9.3;                                  ! Version Identifier

OS:Site:WaterMainsTemperature,
  {82e8fa64-b96f-4a53-8ad9-f656095b0034}, ! Handle
  Schedule;                               ! Calculation Method

