
OS:Version,
  {dfd0062a-a84d-4f54-adec-b4377d83b3b2}, ! Handle
  0.9.3;                                  ! Version Identifier

OS:Site:WaterMainsTemperature,
  {bb42ccf8-9dc4-44f1-a10e-de9297385686}, ! Handle
  Correlation,                            ! Calculation Method
  ,                                       ! Temperature Schedule Name
  16.975,                                 ! Annual Average Outdoor Air Temperature {C}
  24.2;                                   ! Maximum Difference In Monthly Average Outdoor Air Temperatures {deltaC}

