
OS:Version,
  {0cdd8db5-25c8-4dd4-8afc-6cf49c2a9805}, ! Handle
  0.9.3;                                  ! Version Identifier

OS:Site:WaterMainsTemperature,
  {c9919b2d-af0c-476d-aee3-5155d4d759ca}, ! Handle
  Correlation,                            ! Calculation Method
  ,                                       ! Temperature Schedule Name
  5.45,                                   ! Annual Average Outdoor Air Temperature {C}
  17.7;                                   ! Maximum Difference In Monthly Average Outdoor Air Temperatures {deltaC}

