
OS:Version,
  {e2a29c5c-f038-44ae-8e15-ea3e9313ccdb}, ! Handle
  0.9.3;                                  ! Version Identifier

OS:Site:WaterMainsTemperature,
  {edaefef3-3ff3-4881-9bdb-290ca03b195d}, ! Handle
  Correlation,                            ! Calculation Method
  ,                                       ! Temperature Schedule Name
  15.175,                                 ! Annual Average Outdoor Air Temperature {C}
  24.5;                                   ! Maximum Difference In Monthly Average Outdoor Air Temperatures {deltaC}

