
OS:Version,
  {5b274538-7a8a-460a-bddc-8cf52209a89b}, ! Handle
  0.9.3;                                  ! Version Identifier

OS:Site:WaterMainsTemperature,
  {2a254909-5d26-4498-847d-5ad78bde2ce7}, ! Handle
  Correlation,                            ! Calculation Method
  ,                                       ! Temperature Schedule Name
  10.4666666666667,                       ! Annual Average Outdoor Air Temperature {C}
  27.8;                                   ! Maximum Difference In Monthly Average Outdoor Air Temperatures {deltaC}

