
OS:Version,
  {7edc4f50-bcad-41d4-b139-63bac28732b5}, ! Handle
  0.9.3;                                  ! Version Identifier

OS:Site:WaterMainsTemperature,
  {e895387d-fc73-4199-bf9b-2ebd19822eae}, ! Handle
  Correlation,                            ! Calculation Method
  ,                                       ! Temperature Schedule Name
  19.2083333333333,                       ! Annual Average Outdoor Air Temperature {C}
  18.6;                                   ! Maximum Difference In Monthly Average Outdoor Air Temperatures {deltaC}

