
OS:Version,
  {5a84dbae-15c6-4fb8-a0e9-576f5152f4fc}, ! Handle
  0.9.3;                                  ! Version Identifier

OS:Site:WaterMainsTemperature,
  {10658bc3-340f-4182-a356-8783e1f91d48}, ! Handle
  Correlation,                            ! Calculation Method
  ,                                       ! Temperature Schedule Name
  15.2166666666667,                       ! Annual Average Outdoor Air Temperature {C}
  22.1;                                   ! Maximum Difference In Monthly Average Outdoor Air Temperatures {deltaC}

