
OS:Version,
  {00a0db9b-b776-4c7f-8d6e-76edcc946126}, ! Handle
  0.9.3;                                  ! Version Identifier

OS:Site:WaterMainsTemperature,
  {c2376e22-4415-40bb-8834-19c7a31f3c2a}, ! Handle
  Correlation,                            ! Calculation Method
  ,                                       ! Temperature Schedule Name
  8.50833333333333,                       ! Annual Average Outdoor Air Temperature {C}
  27.2;                                   ! Maximum Difference In Monthly Average Outdoor Air Temperatures {deltaC}

