
OS:Version,
  {b88e7fdf-4ad2-43d2-bab2-659e44a847b1}, ! Handle
  0.9.3;                                  ! Version Identifier

OS:Site:WaterMainsTemperature,
  {a09ea77e-9fcf-4cae-a9d1-0bf2f5c60f7e}, ! Handle
  Correlation,                            ! Calculation Method
  ,                                       ! Temperature Schedule Name
  19.3083333333333,                       ! Annual Average Outdoor Air Temperature {C}
  15.4;                                   ! Maximum Difference In Monthly Average Outdoor Air Temperatures {deltaC}

