
OS:Version,
  {757fbea8-c0cc-438e-be39-19943acac56e}, ! Handle
  0.9.3;                                  ! Version Identifier

OS:Site:WaterMainsTemperature,
  {1b0c0165-570a-444a-98fe-4801359438cb}, ! Handle
  Correlation,                            ! Calculation Method
  ,                                       ! Temperature Schedule Name
  24.0083333333333,                       ! Annual Average Outdoor Air Temperature {C}
  20.3;                                   ! Maximum Difference In Monthly Average Outdoor Air Temperatures {deltaC}

