
OS:Version,
  {f3197f05-634b-4737-af72-de749f99e05e}, ! Handle
  0.9.3;                                  ! Version Identifier

OS:Site:WaterMainsTemperature,
  {2ed6fa4f-4995-4165-875b-8547bf606e47}, ! Handle
  Correlation,                            ! Calculation Method
  ,                                       ! Temperature Schedule Name
  9.625,                                  ! Annual Average Outdoor Air Temperature {C}
  21.9;                                   ! Maximum Difference In Monthly Average Outdoor Air Temperatures {deltaC}

