
OS:Version,
  {1bc9b07f-839e-4b0f-b342-f31732a97c11}, ! Handle
  0.9.3;                                  ! Version Identifier

OS:Site:WaterMainsTemperature,
  {235f9220-eecf-4ab4-99c3-fcdaf548f948}, ! Handle
  Correlation,                            ! Calculation Method
  ,                                       ! Temperature Schedule Name
  9.65833333333333,                       ! Annual Average Outdoor Air Temperature {C}
  30.4;                                   ! Maximum Difference In Monthly Average Outdoor Air Temperatures {deltaC}

