
OS:Version,
  {1c261777-8707-4942-bfee-7cf9077e2916}, ! Handle
  0.9.3;                                  ! Version Identifier

OS:Site:WaterMainsTemperature,
  {8652c5dd-bde1-48eb-b05d-1e197cefbf0b}, ! Handle
  Correlation,                            ! Calculation Method
  ,                                       ! Temperature Schedule Name
  16.3166666666667,                       ! Annual Average Outdoor Air Temperature {C}
  7.5;                                    ! Maximum Difference In Monthly Average Outdoor Air Temperatures {deltaC}

