
OS:Version,
  {3c59c08d-a790-46a2-a73d-7addb597e95e}, ! Handle
  0.9.3;                                  ! Version Identifier

OS:Site:WaterMainsTemperature,
  {bdbe1c1a-10b7-459c-83d1-fb07a8351cfa}, ! Handle
  Correlation,                            ! Calculation Method
  ,                                       ! Temperature Schedule Name
  13.525,                                 ! Annual Average Outdoor Air Temperature {C}
  25.8;                                   ! Maximum Difference In Monthly Average Outdoor Air Temperatures {deltaC}

