
OS:Version,
  {12c1512d-5a72-47f9-9f09-97ae8ffd5d92}, ! Handle
  0.9.3;                                  ! Version Identifier

OS:Site:WaterMainsTemperature,
  {40d346d4-f7dd-4f4e-bb1a-e858285f58f1}, ! Handle
  Correlation,                            ! Calculation Method
  ,                                       ! Temperature Schedule Name
  10.975,                                 ! Annual Average Outdoor Air Temperature {C}
  24.1;                                   ! Maximum Difference In Monthly Average Outdoor Air Temperatures {deltaC}

