
OS:Version,
  {b800ee4d-5988-4a84-917b-2826d4374406}, ! Handle
  0.9.3;                                  ! Version Identifier

OS:Site:WaterMainsTemperature,
  {2c744bb1-b67b-4829-ad47-8bb13ead12aa}, ! Handle
  Correlation,                            ! Calculation Method
  ,                                       ! Temperature Schedule Name
  7.45833333333333,                       ! Annual Average Outdoor Air Temperature {C}
  24.5;                                   ! Maximum Difference In Monthly Average Outdoor Air Temperatures {deltaC}

