
OS:Version,
  {9dc6af0e-b2e4-418a-a063-cd418343883d}, ! Handle
  0.9.3;                                  ! Version Identifier

OS:Site:WaterMainsTemperature,
  {6ae68e81-8b7b-457e-a5f5-fbab1d2be2ae}, ! Handle
  Correlation,                            ! Calculation Method
  ,                                       ! Temperature Schedule Name
  12.1083333333333,                       ! Annual Average Outdoor Air Temperature {C}
  26;                                     ! Maximum Difference In Monthly Average Outdoor Air Temperatures {deltaC}

