
OS:Version,
  {da8be07b-927d-4c65-9aff-24293eca1fd2}, ! Handle
  0.9.3;                                  ! Version Identifier

OS:Site:WaterMainsTemperature,
  {12ab388f-834e-4b60-b31a-661d270147ed}, ! Handle
  Correlation,                            ! Calculation Method
  ,                                       ! Temperature Schedule Name
  7.64166666666667,                       ! Annual Average Outdoor Air Temperature {C}
  31.2;                                   ! Maximum Difference In Monthly Average Outdoor Air Temperatures {deltaC}

