
OS:Version,
  {92b408ea-811b-490e-b6b0-4de033714a83}, ! Handle
  0.9.3;                                  ! Version Identifier

OS:Site:WaterMainsTemperature,
  {7eeb4061-f8e3-4918-8428-d6acf08dd718}, ! Handle
  Correlation,                            ! Calculation Method
  ,                                       ! Temperature Schedule Name
  16.2083333333333,                       ! Annual Average Outdoor Air Temperature {C}
  18.4;                                   ! Maximum Difference In Monthly Average Outdoor Air Temperatures {deltaC}

