
OS:Version,
  {5a2bd6eb-44c7-41a8-99bb-2b9d2d372e63}, ! Handle
  0.9.3;                                  ! Version Identifier

OS:Site:WaterMainsTemperature,
  {ca71b9be-07f3-43cf-b6a6-06dc3aa65644}, ! Handle
  Correlation,                            ! Calculation Method
  ,                                       ! Temperature Schedule Name
  14.75,                                  ! Annual Average Outdoor Air Temperature {C}
  23.6;                                   ! Maximum Difference In Monthly Average Outdoor Air Temperatures {deltaC}

