
OS:Version,
  {0b0c954b-3266-4879-9f61-e8c0674fa559}, ! Handle
  0.9.3;                                  ! Version Identifier

OS:Site:WaterMainsTemperature,
  {a5f6bde8-0d01-48b0-8dff-1d6b5ce2ed40}, ! Handle
  Correlation,                            ! Calculation Method
  ,                                       ! Temperature Schedule Name
  4.38333333333333,                       ! Annual Average Outdoor Air Temperature {C}
  14.2;                                   ! Maximum Difference In Monthly Average Outdoor Air Temperatures {deltaC}

