
OS:Version,
  {be7f84a9-0e0f-44f8-b358-81be526ee7e1}, ! Handle
  0.9.3;                                  ! Version Identifier

OS:Site:WaterMainsTemperature,
  {01044936-ead1-45a2-bc4e-a439179ceb47}, ! Handle
  Correlation,                            ! Calculation Method
  ,                                       ! Temperature Schedule Name
  7.29166666666667,                       ! Annual Average Outdoor Air Temperature {C}
  14;                                     ! Maximum Difference In Monthly Average Outdoor Air Temperatures {deltaC}

