
OS:Version,
  {c5414d3f-9ab2-4c30-910a-6d181ca2af59}, ! Handle
  0.9.3;                                  ! Version Identifier

OS:Site:WaterMainsTemperature,
  {001dd468-79d2-4fc6-9918-f9b6274fa0b3}, ! Handle
  Correlation,                            ! Calculation Method
  ,                                       ! Temperature Schedule Name
  8.38333333333333,                       ! Annual Average Outdoor Air Temperature {C}
  24.9;                                   ! Maximum Difference In Monthly Average Outdoor Air Temperatures {deltaC}

