
OS:Version,
  {5ae3a3ab-e670-4d7a-9214-408f793fedfa}, ! Handle
  0.9.3;                                  ! Version Identifier

OS:Site:WaterMainsTemperature,
  {42a5e569-55cb-4dbf-a4eb-84540cffcda9}, ! Handle
  Correlation,                            ! Calculation Method
  ,                                       ! Temperature Schedule Name
  24.7416666666667,                       ! Annual Average Outdoor Air Temperature {C}
  6;                                      ! Maximum Difference In Monthly Average Outdoor Air Temperatures {deltaC}

