
OS:Version,
  {88a87978-5ae8-429d-ab0d-3baab20d7208}, ! Handle
  0.9.3;                                  ! Version Identifier

OS:Site:WaterMainsTemperature,
  {3fcf516b-50d4-435c-851e-f7e5ddc1506b}, ! Handle
  Correlation,                            ! Calculation Method
  ,                                       ! Temperature Schedule Name
  10.3333333333333,                       ! Annual Average Outdoor Air Temperature {C}
  25.6;                                   ! Maximum Difference In Monthly Average Outdoor Air Temperatures {deltaC}

