
OS:Version,
  {67150f7b-13b9-4e70-8f26-d0f9f70258b5}, ! Handle
  0.9.3;                                  ! Version Identifier

OS:Site:WaterMainsTemperature,
  {8d7f7cd3-dbf2-41a3-99ce-7e247caa6d35}, ! Handle
  Correlation,                            ! Calculation Method
  ,                                       ! Temperature Schedule Name
  10.975,                                 ! Annual Average Outdoor Air Temperature {C}
  29;                                     ! Maximum Difference In Monthly Average Outdoor Air Temperatures {deltaC}

