
OS:Version,
  {ee243387-bbef-466e-b7bf-9596b60140f3}, ! Handle
  0.9.3;                                  ! Version Identifier

OS:Site:WaterMainsTemperature,
  {ff225d57-92d4-4523-8fc3-3d7fa92b2037}, ! Handle
  Correlation,                            ! Calculation Method
  ,                                       ! Temperature Schedule Name
  19.7916666666667,                       ! Annual Average Outdoor Air Temperature {C}
  16.7;                                   ! Maximum Difference In Monthly Average Outdoor Air Temperatures {deltaC}

