
OS:Version,
  {7562ca90-3fec-4ed0-9fe5-c0fbfce44f1b}, ! Handle
  0.9.3;                                  ! Version Identifier

OS:Site:WaterMainsTemperature,
  {0d26ef5d-fd33-445e-856e-1822bbf4272a}, ! Handle
  Correlation,                            ! Calculation Method
  ,                                       ! Temperature Schedule Name
  9.35833333333333,                       ! Annual Average Outdoor Air Temperature {C}
  26.6;                                   ! Maximum Difference In Monthly Average Outdoor Air Temperatures {deltaC}

