
OS:Version,
  {19bbdeb3-25d4-4996-bf12-7cc855cf3f59}, ! Handle
  0.9.3;                                  ! Version Identifier

OS:Site:WaterMainsTemperature,
  {47de773d-6708-4f1c-89b6-fdc29ea03fc2}, ! Handle
  Correlation,                            ! Calculation Method
  ,                                       ! Temperature Schedule Name
  16.9583333333333,                       ! Annual Average Outdoor Air Temperature {C}
  21.6;                                   ! Maximum Difference In Monthly Average Outdoor Air Temperatures {deltaC}

