
OS:Version,
  {1f1ecc2a-def8-4868-9d53-d7950a549720}, ! Handle
  0.9.3;                                  ! Version Identifier

OS:Site:WaterMainsTemperature,
  {eed85afc-e063-4460-a849-ef0a096a91dc}, ! Handle
  Correlation,                            ! Calculation Method
  ,                                       ! Temperature Schedule Name
  13.8666666666667,                       ! Annual Average Outdoor Air Temperature {C}
  22.3;                                   ! Maximum Difference In Monthly Average Outdoor Air Temperatures {deltaC}

